<?xml version="1.0" ?>
<!DOCTYPE plans SYSTEM "http://www.matsim.org/files/dtd/plans_v4.dtd">
<plans xml:lang="de-CH">
<person id="B1062">
	<plan>
		<act type="p" x="-146.0789947555576" y="3467.344626018175" link="OMDB-ZGGG" start_time="01:10:00" end_time="01:29:00" />
		<leg mode="car" trav_time="00:00:00">
		</leg>
		<act type="f" x="-146.0789947555576" y="3467.344626018175" link="OMDB-ZGGG" end_time="01:29:00" />
		<leg mode="car" dep_time="01:29:00">
		</leg>
		<act type="d" x="-356.5363518627703" y="49.53831782138778" link="ZGGG-OMDB" start_time="08:34:00" end_time="08:45:00" />
		<leg mode="car" trav_time="00:00:00">
		</leg>
		<act type="w" x="-356.5363518627703" y="49.53831782138778" link="ZGGG-OMDB" start_time="08:45:00" end_time="14:50:00" />
		<leg mode="car" trav_time="00:00:00">
		</leg>
		<act type="p" x="-356.5363518627703" y="49.53831782138778" link="ZGGG-OMDB" start_time="14:50:00" end_time="15:12:00" />
		<leg mode="car" trav_time="00:00:00">
		</leg>
		<act type="f" x="-356.5363518627703" y="49.53831782138778" link="ZGGG-OMDB" end_time="15:12:00" />
		<leg mode="car" dep_time="15:12:00">
		</leg>
		<act type="d" x="-146.0789947555576" y="3467.344626018175" link="OMDB-ZGGG" start_time="23:32:00" end_time="23:05:00" />
		<leg mode="car" trav_time="00:00:00">
		</leg>
		<act type="w" x="-146.0789947555576" y="3467.344626018175" link="OMDB-ZGGG" start_time="23:05:00" end_time="25:10:00" />
		<leg mode="car" trav_time="00:00:00">
		</leg>
		<act type="p" x="-146.0789947555576" y="3467.344626018175" link="OMDB-ZGGG" start_time="25:10:00" end_time="25:25:00" />
		<leg mode="car" trav_time="00:00:00">
		</leg>
		<act type="f" x="-146.0789947555576" y="3467.344626018175" link="OMDB-ZGGG" end_time="25:25:00" />
		<leg mode="car" dep_time="25:25:00">
		</leg>
		<act type="d" x="-356.5363518627703" y="49.53831782138778" link="ZGGG-OMDB" start_time="31:54:00" end_time="32:45:00" />
		<leg mode="car" trav_time="00:00:00">
		</leg>
		<act type="w" x="-356.5363518627703" y="49.53831782138778" link="ZGGG-OMDB" start_time="32:45:00" end_time="38:50:00" />
		<leg mode="car" trav_time="00:00:00">
		</leg>
		<act type="p" x="-356.5363518627703" y="49.53831782138778" link="ZGGG-OMDB" start_time="38:50:00" end_time="39:15:00" />
		<leg mode="car" trav_time="00:00:00">
		</leg>
		<act type="f" x="-356.5363518627703" y="49.53831782138778" link="ZGGG-OMDB" end_time="39:15:00" />
		<leg mode="car" dep_time="39:15:00">
		</leg>
		<act type="d" x="-146.0789947555576" y="3467.344626018175" link="OMDB-ZGGG" start_time="47:21:00" end_time="47:10:00" />
		<leg mode="car" trav_time="00:00:00">
		</leg>
		<act type="w" x="-146.0789947555576" y="3467.344626018175" link="OMDB-ZGGG" start_time="47:10:00" end_time="49:10:00" />
		<leg mode="car" trav_time="00:00:00">
		</leg>
		<act type="p" x="-146.0789947555576" y="3467.344626018175" link="OMDB-ZGGG" start_time="49:10:00" end_time="49:32:00" />
		<leg mode="car" trav_time="00:00:00">
		</leg>
		<act type="f" x="-146.0789947555576" y="3467.344626018175" link="OMDB-ZGGG" end_time="49:32:00" />
		<leg mode="car" dep_time="49:32:00">
		</leg>
		<act type="d" x="-356.5363518627703" y="49.53831782138778" link="ZGGG-OMDB" start_time="56:12:00" end_time="56:45:00" />
		<leg mode="car" trav_time="00:00:00">
		</leg>
		<act type="w" x="-356.5363518627703" y="49.53831782138778" link="ZGGG-OMDB" start_time="56:45:00" end_time="66:40:00" />
		<leg mode="car" trav_time="00:00:00">
		</leg>
		<act type="p" x="-356.5363518627703" y="49.53831782138778" link="ZGGG-OMDB" start_time="66:40:00" end_time="66:55:00" />
		<leg mode="car" trav_time="00:00:00">
		</leg>
		<act type="f" x="-356.5363518627703" y="49.53831782138778" link="ZGGG-OMDB" end_time="66:55:00" />
		<leg mode="car" dep_time="66:55:00">
		</leg>
		<act type="d" x="-146.0789947555576" y="3467.344626018175" link="OMDB-ZGGG" start_time="74:53:00" end_time="75:00:00" />
	</plan>
</person>

<person id="B1063">
	<plan>
		<act type="p" x="-3188.572594222363" y="-2854.276648244003" link="YSSY-ZGSZ" start_time="06:45:00" end_time="06:48:00" />
		<leg mode="car" trav_time="00:00:00">
		</leg>
		<act type="f" x="-3188.572594222363" y="-2854.276648244003" link="YSSY-ZGSZ" end_time="06:48:00" />
		<leg mode="car" dep_time="06:48:00">
		</leg>
		<act type="d" x="-333.566173587455" y="101.357563872832" link="ZGSZ-YSSY" start_time="16:17:00" end_time="17:05:00" />
		<leg mode="car" trav_time="00:00:00">
		</leg>
		<act type="w" x="-333.566173587455" y="101.357563872832" link="ZGSZ-ZUUU" start_time="17:05:00" end_time="18:50:00" />
		<leg mode="car" trav_time="00:00:00">
		</leg>
		<act type="p" x="-333.566173587455" y="101.357563872832" link="ZGSZ-ZUUU" start_time="18:50:00" end_time="18:58:00" />
		<leg mode="car" trav_time="00:00:00">
		</leg>
		<act type="f" x="-333.566173587455" y="101.357563872832" link="ZGSZ-ZUUU" end_time="18:58:00" />
		<leg mode="car" dep_time="18:58:00">
		</leg>
		<act type="d" x="117.4046148746559" y="-475.8225369635356" link="ZUUU-ZGSZ" start_time="21:09:00" end_time="21:30:00" />
		<leg mode="car" trav_time="00:00:00">
		</leg>
		<act type="w" x="117.4046148746559" y="-475.8225369635356" link="ZUUU-ZGSZ" start_time="21:30:00" end_time="22:50:00" />
		<leg mode="car" trav_time="00:00:00">
		</leg>
		<act type="p" x="117.4046148746559" y="-475.8225369635356" link="ZUUU-ZGSZ" start_time="22:50:00" end_time="23:12:00" />
		<leg mode="car" trav_time="00:00:00">
		</leg>
		<act type="f" x="117.4046148746559" y="-475.8225369635356" link="ZUUU-ZGSZ" end_time="23:12:00" />
		<leg mode="car" dep_time="23:12:00">
		</leg>
		<act type="d" x="-333.566173587455" y="101.357563872832" link="ZGSZ-ZUUU" start_time="25:09:00" end_time="25:25:00" />
		<leg mode="car" trav_time="00:00:00">
		</leg>
		<act type="w" x="-333.566173587455" y="101.357563872832" link="ZGSZ-ZLLL" start_time="25:25:00" end_time="30:45:00" />
		<leg mode="car" trav_time="00:00:00">
		</leg>
		<act type="p" x="-333.566173587455" y="101.357563872832" link="ZGSZ-ZLLL" start_time="30:45:00" end_time="30:59:00" />
		<leg mode="car" trav_time="00:00:00">
		</leg>
		<act type="f" x="-333.566173587455" y="101.357563872832" link="ZGSZ-ZLLL" end_time="30:59:00" />
		<leg mode="car" dep_time="30:59:00">
		</leg>
		<act type="d" x="508.083236761518" y="-608.7370054921626" link="ZLLL-ZGSZ" start_time="33:56:00" end_time="33:55:00" />
		<leg mode="car" trav_time="00:00:00">
		</leg>
		<act type="w" x="508.083236761518" y="-608.7370054921626" link="ZLLL-ZGSZ" start_time="33:55:00" end_time="35:15:00" />
		<leg mode="car" trav_time="00:00:00">
		</leg>
		<act type="p" x="508.083236761518" y="-608.7370054921626" link="ZLLL-ZGSZ" start_time="35:15:00" end_time="35:28:00" />
		<leg mode="car" trav_time="00:00:00">
		</leg>
		<act type="f" x="508.083236761518" y="-608.7370054921626" link="ZLLL-ZGSZ" end_time="35:28:00" />
		<leg mode="car" dep_time="35:28:00">
		</leg>
		<act type="d" x="-333.566173587455" y="101.357563872832" link="ZGSZ-ZLLL" start_time="38:18:00" end_time="38:35:00" />
		<leg mode="car" trav_time="00:00:00">
		</leg>
		<act type="w" x="-333.566173587455" y="101.357563872832" link="ZGSZ-OERK" start_time="38:35:00" end_time="41:45:00" />
		<leg mode="car" trav_time="00:00:00">
		</leg>
		<act type="p" x="-333.566173587455" y="101.357563872832" link="ZGSZ-OERK" start_time="41:45:00" end_time="42:08:00" />
		<leg mode="car" trav_time="00:00:00">
		</leg>
		<act type="f" x="-333.566173587455" y="101.357563872832" link="ZGSZ-OERK" end_time="42:08:00" />
		<leg mode="car" dep_time="42:08:00">
		</leg>
		<act type="d" x="-2955.03289597882" y="2841.070513606123" link="OERK-ZGSZ" start_time="51:29:00" end_time="51:30:00" />
		<leg mode="car" trav_time="00:00:00">
		</leg>
		<act type="w" x="-2955.03289597882" y="2841.070513606123" link="OERK-ZGSZ" start_time="51:30:00" end_time="53:30:00" />
		<leg mode="car" trav_time="00:00:00">
		</leg>
		<act type="p" x="-2955.03289597882" y="2841.070513606123" link="OERK-ZGSZ" start_time="53:30:00" end_time="53:50:00" />
		<leg mode="car" trav_time="00:00:00">
		</leg>
		<act type="f" x="-2955.03289597882" y="2841.070513606123" link="OERK-ZGSZ" end_time="53:50:00" />
		<leg mode="car" dep_time="53:50:00">
		</leg>
		<act type="d" x="-333.566173587455" y="101.357563872832" link="ZGSZ-OERK" start_time="61:29:00" end_time="62:35:00" />
	</plan>
</person>

<person id="B1065">
	<plan>
		<act type="p" x="624.0063395544229" y="-101.2424653016145" link="ZBAD-ZJSY" start_time="09:40:00" end_time="09:55:00" />
		<leg mode="car" trav_time="00:00:00">
		</leg>
		<act type="f" x="624.0063395544229" y="-101.2424653016145" link="ZBAD-ZJSY" end_time="09:55:00" />
		<leg mode="car" dep_time="09:55:00">
		</leg>
		<act type="d" x="-592.4696551875379" y="138.3843862110542" link="ZJSY-ZBAD" start_time="13:31:00" end_time="13:50:00" />
		<leg mode="car" trav_time="00:00:00">
		</leg>
		<act type="w" x="-592.4696551875379" y="138.3843862110542" link="ZJSY-ZBAD" start_time="13:50:00" end_time="15:00:00" />
		<leg mode="car" trav_time="00:00:00">
		</leg>
		<act type="p" x="-592.4696551875379" y="138.3843862110542" link="ZJSY-ZBAD" start_time="15:00:00" end_time="15:34:00" />
		<leg mode="car" trav_time="00:00:00">
		</leg>
		<act type="f" x="-592.4696551875379" y="138.3843862110542" link="ZJSY-ZBAD" end_time="15:34:00" />
		<leg mode="car" dep_time="15:34:00">
		</leg>
		<act type="d" x="624.0063395544229" y="-101.2424653016145" link="ZBAD-ZJSY" start_time="19:10:00" end_time="18:55:00" />
		<leg mode="car" trav_time="00:00:00">
		</leg>
		<act type="w" x="624.0063395544229" y="-101.2424653016145" link="ZBAD-ZUCK" start_time="18:55:00" end_time="33:55:00" />
		<leg mode="car" trav_time="00:00:00">
		</leg>
		<act type="p" x="624.0063395544229" y="-101.2424653016145" link="ZBAD-ZUCK" start_time="33:55:00" end_time="34:07:00" />
		<leg mode="car" trav_time="00:00:00">
		</leg>
		<act type="f" x="624.0063395544229" y="-101.2424653016145" link="ZBAD-ZUCK" end_time="34:07:00" />
		<leg mode="car" dep_time="34:07:00">
		</leg>
		<act type="d" x="84.45700491086988" y="-255.5692445677528" link="ZUCK-ZBAD" start_time="36:28:00" end_time="37:05:00" />
		<leg mode="car" trav_time="00:00:00">
		</leg>
		<act type="w" x="84.45700491086988" y="-255.5692445677528" link="ZUCK-ZBAD" start_time="37:05:00" end_time="38:15:00" />
		<leg mode="car" trav_time="00:00:00">
		</leg>
		<act type="p" x="84.45700491086988" y="-255.5692445677528" link="ZUCK-ZBAD" start_time="38:15:00" end_time="38:25:00" />
		<leg mode="car" trav_time="00:00:00">
		</leg>
		<act type="f" x="84.45700491086988" y="-255.5692445677528" link="ZUCK-ZBAD" end_time="38:25:00" />
		<leg mode="car" dep_time="38:25:00">
		</leg>
		<act type="d" x="624.0063395544229" y="-101.2424653016145" link="ZBAD-ZUCK" start_time="40:22:00" end_time="40:45:00" />
		<leg mode="car" trav_time="00:00:00">
		</leg>
		<act type="w" x="624.0063395544229" y="-101.2424653016145" link="ZBAD-OIIE" start_time="40:45:00" end_time="42:15:00" />
		<leg mode="car" trav_time="00:00:00">
		</leg>
		<act type="p" x="624.0063395544229" y="-101.2424653016145" link="ZBAD-OIIE" start_time="42:15:00" end_time="42:15:00" />
		<leg mode="car" trav_time="00:00:00">
		</leg>
		<act type="f" x="624.0063395544229" y="-101.2424653016145" link="ZBAD-OIIE" end_time="42:15:00" />
		<leg mode="car" dep_time="42:15:00">
		</leg>
		<act type="d" x="896.3453336267219" y="-3138.587029539052" link="OIIE-ZBAD" start_time="50:33:00" end_time="50:50:00" />
		<leg mode="car" trav_time="00:00:00">
		</leg>
		<act type="w" x="896.3453336267219" y="-3138.587029539052" link="OIIE-ZBAD" start_time="50:50:00" end_time="52:50:00" />
		<leg mode="car" trav_time="00:00:00">
		</leg>
		<act type="p" x="896.3453336267219" y="-3138.587029539052" link="OIIE-ZBAD" start_time="52:50:00" end_time="52:53:00" />
		<leg mode="car" trav_time="00:00:00">
		</leg>
		<act type="f" x="896.3453336267219" y="-3138.587029539052" link="OIIE-ZBAD" end_time="52:53:00" />
		<leg mode="car" dep_time="52:53:00">
		</leg>
		<act type="d" x="624.0063395544229" y="-101.2424653016145" link="ZBAD-OIIE" start_time="59:43:00" end_time="60:05:00" />
	</plan>
</person>

<person id="B1092">
	<plan>
		<act type="p" x="-356.5363518627703" y="49.53831782138778" link="ZGGG-ZSWZ" start_time="07:35:00" end_time="08:02:00" />
		<leg mode="car" trav_time="00:00:00">
		</leg>
		<act type="f" x="-356.5363518627703" y="49.53831782138778" link="ZGGG-ZSWZ" end_time="08:02:00" />
		<leg mode="car" dep_time="08:02:00">
		</leg>
		<act type="d" x="50.74864763989383" y="204.01431464773" link="ZSWZ-ZGGG" start_time="09:20:00" end_time="09:25:00" />
		<leg mode="car" trav_time="00:00:00">
		</leg>
		<act type="w" x="50.74864763989383" y="204.01431464773" link="ZSWZ-ZGGG" start_time="09:25:00" end_time="10:20:00" />
		<leg mode="car" trav_time="00:00:00">
		</leg>
		<act type="p" x="50.74864763989383" y="204.01431464773" link="ZSWZ-ZGGG" start_time="10:20:00" end_time="10:23:00" />
		<leg mode="car" trav_time="00:00:00">
		</leg>
		<act type="f" x="50.74864763989383" y="204.01431464773" link="ZSWZ-ZGGG" end_time="10:23:00" />
		<leg mode="car" dep_time="10:23:00">
		</leg>
		<act type="d" x="-356.5363518627703" y="49.53831782138778" link="ZGGG-ZSWZ" start_time="12:03:00" end_time="12:25:00" />
		<leg mode="car" trav_time="00:00:00">
		</leg>
		<act type="w" x="-356.5363518627703" y="49.53831782138778" link="ZGGG-ZBYN" start_time="12:25:00" end_time="13:25:00" />
		<leg mode="car" trav_time="00:00:00">
		</leg>
		<act type="p" x="-356.5363518627703" y="49.53831782138778" link="ZGGG-ZBYN" start_time="13:25:00" end_time="13:38:00" />
		<leg mode="car" trav_time="00:00:00">
		</leg>
		<act type="f" x="-356.5363518627703" y="49.53831782138778" link="ZGGG-ZBYN" end_time="13:38:00" />
		<leg mode="car" dep_time="13:38:00">
		</leg>
		<act type="d" x="610.081864671943" y="-303.2317255698551" link="ZBYN-ZGGG" start_time="16:11:00" end_time="16:15:00" />
		<leg mode="car" trav_time="00:00:00">
		</leg>
		<act type="w" x="610.081864671943" y="-303.2317255698551" link="ZBYN-ZGGG" start_time="16:15:00" end_time="17:05:00" />
		<leg mode="car" trav_time="00:00:00">
		</leg>
		<act type="p" x="610.081864671943" y="-303.2317255698551" link="ZBYN-ZGGG" start_time="17:05:00" end_time="17:17:00" />
		<leg mode="car" trav_time="00:00:00">
		</leg>
		<act type="f" x="610.081864671943" y="-303.2317255698551" link="ZBYN-ZGGG" end_time="17:17:00" />
		<leg mode="car" dep_time="17:17:00">
		</leg>
		<act type="d" x="-356.5363518627703" y="49.53831782138778" link="ZGGG-ZBYN" start_time="19:28:00" end_time="20:05:00" />
		<leg mode="car" trav_time="00:00:00">
		</leg>
		<act type="w" x="-356.5363518627703" y="49.53831782138778" link="ZGGG-ZSJN" start_time="20:05:00" end_time="21:10:00" />
		<leg mode="car" trav_time="00:00:00">
		</leg>
		<act type="p" x="-356.5363518627703" y="49.53831782138778" link="ZGGG-ZSJN" start_time="21:10:00" end_time="21:40:00" />
		<leg mode="car" trav_time="00:00:00">
		</leg>
		<act type="f" x="-356.5363518627703" y="49.53831782138778" link="ZGGG-ZSJN" end_time="21:40:00" />
		<leg mode="car" dep_time="21:40:00">
		</leg>
		<act type="d" x="525.4956964980071" y="228.3616135689099" link="ZSJN-ZGGG" start_time="24:06:00" end_time="23:50:00" />
		<leg mode="car" trav_time="00:00:00">
		</leg>
		<act type="w" x="525.4956964980071" y="228.3616135689099" link="ZSJN-ZGGG" start_time="23:50:00" end_time="32:10:00" />
		<leg mode="car" trav_time="00:00:00">
		</leg>
		<act type="p" x="525.4956964980071" y="228.3616135689099" link="ZSJN-ZGGG" start_time="32:10:00" end_time="32:10:00" />
		<leg mode="car" trav_time="00:00:00">
		</leg>
		<act type="f" x="525.4956964980071" y="228.3616135689099" link="ZSJN-ZGGG" end_time="32:10:00" />
		<leg mode="car" dep_time="32:10:00">
		</leg>
		<act type="d" x="-356.5363518627703" y="49.53831782138778" link="ZGGG-ZSJN" start_time="34:22:00" end_time="34:45:00" />
		<leg mode="car" trav_time="00:00:00">
		</leg>
		<act type="w" x="-356.5363518627703" y="49.53831782138778" link="ZGGG-ZSSS" start_time="34:45:00" end_time="37:00:00" />
		<leg mode="car" trav_time="00:00:00">
		</leg>
		<act type="p" x="-356.5363518627703" y="49.53831782138778" link="ZGGG-ZSSS" start_time="37:00:00" end_time="37:17:00" />
		<leg mode="car" trav_time="00:00:00">
		</leg>
		<act type="f" x="-356.5363518627703" y="49.53831782138778" link="ZGGG-ZSSS" end_time="37:17:00" />
		<leg mode="car" dep_time="37:17:00">
		</leg>
		<act type="d" x="90.03163702746622" y="-508.7830449693061" link="ZSSS-ZGGG" start_time="39:05:00" end_time="39:25:00" />
		<leg mode="car" trav_time="00:00:00">
		</leg>
		<act type="w" x="90.03163702746622" y="-508.7830449693061" link="ZSSS-ZGGG" start_time="39:25:00" end_time="40:50:00" />
		<leg mode="car" trav_time="00:00:00">
		</leg>
		<act type="p" x="90.03163702746622" y="-508.7830449693061" link="ZSSS-ZGGG" start_time="40:50:00" end_time="41:03:00" />
		<leg mode="car" trav_time="00:00:00">
		</leg>
		<act type="f" x="90.03163702746622" y="-508.7830449693061" link="ZSSS-ZGGG" end_time="41:03:00" />
		<leg mode="car" dep_time="41:03:00">
		</leg>
		<act type="d" x="-356.5363518627703" y="49.53831782138778" link="ZGGG-ZSSS" start_time="42:52:00" end_time="43:15:00" />
		<leg mode="car" trav_time="00:00:00">
		</leg>
		<act type="w" x="-356.5363518627703" y="49.53831782138778" link="ZGGG-ZBHH" start_time="43:15:00" end_time="55:45:00" />
		<leg mode="car" trav_time="00:00:00">
		</leg>
		<act type="p" x="-356.5363518627703" y="49.53831782138778" link="ZGGG-ZBHH" start_time="55:45:00" end_time="55:56:00" />
		<leg mode="car" trav_time="00:00:00">
		</leg>
		<act type="f" x="-356.5363518627703" y="49.53831782138778" link="ZGGG-ZBHH" end_time="55:56:00" />
		<leg mode="car" dep_time="55:56:00">
		</leg>
		<act type="d" x="708.1208634083389" y="-357.2972858024276" link="ZBHH-ZGGG" start_time="58:50:00" end_time="58:55:00" />
		<leg mode="car" trav_time="00:00:00">
		</leg>
		<act type="w" x="708.1208634083389" y="-357.2972858024276" link="ZBHH-ZGGG" start_time="58:55:00" end_time="59:45:00" />
		<leg mode="car" trav_time="00:00:00">
		</leg>
		<act type="p" x="708.1208634083389" y="-357.2972858024276" link="ZBHH-ZGGG" start_time="59:45:00" end_time="60:16:00" />
		<leg mode="car" trav_time="00:00:00">
		</leg>
		<act type="f" x="708.1208634083389" y="-357.2972858024276" link="ZBHH-ZGGG" end_time="60:16:00" />
		<leg mode="car" dep_time="60:16:00">
		</leg>
		<act type="d" x="-356.5363518627703" y="49.53831782138778" link="ZGGG-ZBHH" start_time="62:53:00" end_time="63:05:00" />
	</plan>
</person>

<person id="B1121">
	<plan>
		<act type="p" x="709.4605417722098" y="-1912.979386888478" link="ZWSH-ZGGG" start_time="08:00:00" end_time="08:01:00" />
		<leg mode="car" trav_time="00:00:00">
		</leg>
		<act type="f" x="709.4605417722098" y="-1912.979386888478" link="ZWSH-ZGGG" end_time="08:01:00" />
		<leg mode="car" dep_time="08:01:00">
		</leg>
		<act type="d" x="-356.5363518627703" y="49.53831782138778" link="ZGGG-ZWSH" start_time="13:48:00" end_time="13:50:00" />
		<leg mode="car" trav_time="00:00:00">
		</leg>
		<act type="w" x="-356.5363518627703" y="49.53831782138778" link="ZGGG-ZWSH" start_time="13:50:00" end_time="15:10:00" />
		<leg mode="car" trav_time="00:00:00">
		</leg>
		<act type="p" x="-356.5363518627703" y="49.53831782138778" link="ZGGG-ZWSH" start_time="15:10:00" end_time="15:18:00" />
		<leg mode="car" trav_time="00:00:00">
		</leg>
		<act type="f" x="-356.5363518627703" y="49.53831782138778" link="ZGGG-ZWSH" end_time="15:18:00" />
		<leg mode="car" dep_time="15:18:00">
		</leg>
		<act type="d" x="709.4605417722098" y="-1912.979386888478" link="ZWSH-ZGGG" start_time="21:11:00" end_time="21:45:00" />
		<leg mode="car" trav_time="00:00:00">
		</leg>
		<act type="w" x="709.4605417722098" y="-1912.979386888478" link="ZWSH-ZSPD" start_time="21:45:00" end_time="32:10:00" />
		<leg mode="car" trav_time="00:00:00">
		</leg>
		<act type="p" x="709.4605417722098" y="-1912.979386888478" link="ZWSH-ZSPD" start_time="32:10:00" end_time="32:13:00" />
		<leg mode="car" trav_time="00:00:00">
		</leg>
		<act type="f" x="709.4605417722098" y="-1912.979386888478" link="ZWSH-ZSPD" end_time="32:13:00" />
		<leg mode="car" dep_time="32:13:00">
		</leg>
		<act type="d" x="297.7252900710116" y="52.40016381254073" link="ZSPD-ZWSH" start_time="37:39:00" end_time="37:55:00" />
		<leg mode="car" trav_time="00:00:00">
		</leg>
		<act type="w" x="297.7252900710116" y="52.40016381254073" link="ZSPD-ZWSH" start_time="37:55:00" end_time="39:15:00" />
		<leg mode="car" trav_time="00:00:00">
		</leg>
		<act type="p" x="297.7252900710116" y="52.40016381254073" link="ZSPD-ZWSH" start_time="39:15:00" end_time="39:22:00" />
		<leg mode="car" trav_time="00:00:00">
		</leg>
		<act type="f" x="297.7252900710116" y="52.40016381254073" link="ZSPD-ZWSH" end_time="39:22:00" />
		<leg mode="car" dep_time="39:22:00">
		</leg>
		<act type="d" x="709.4605417722098" y="-1912.979386888478" link="ZWSH-ZSPD" start_time="45:33:00" end_time="45:50:00" />
		<leg mode="car" trav_time="00:00:00">
		</leg>
		<act type="w" x="709.4605417722098" y="-1912.979386888478" link="ZWSH-ZGGG" start_time="45:50:00" end_time="56:00:00" />
		<leg mode="car" trav_time="00:00:00">
		</leg>
		<act type="p" x="709.4605417722098" y="-1912.979386888478" link="ZWSH-ZGGG" start_time="56:00:00" end_time="56:01:00" />
		<leg mode="car" trav_time="00:00:00">
		</leg>
		<act type="f" x="709.4605417722098" y="-1912.979386888478" link="ZWSH-ZGGG" end_time="56:01:00" />
		<leg mode="car" dep_time="56:01:00">
		</leg>
		<act type="d" x="-356.5363518627703" y="49.53831782138778" link="ZGGG-ZWSH" start_time="61:31:00" end_time="61:50:00" />
		<leg mode="car" trav_time="00:00:00">
		</leg>
		<act type="w" x="-356.5363518627703" y="49.53831782138778" link="ZGGG-ZWSH" start_time="61:50:00" end_time="63:10:00" />
		<leg mode="car" trav_time="00:00:00">
		</leg>
		<act type="p" x="-356.5363518627703" y="49.53831782138778" link="ZGGG-ZWSH" start_time="63:10:00" end_time="63:14:00" />
		<leg mode="car" trav_time="00:00:00">
		</leg>
		<act type="f" x="-356.5363518627703" y="49.53831782138778" link="ZGGG-ZWSH" end_time="63:14:00" />
		<leg mode="car" dep_time="63:14:00">
		</leg>
		<act type="d" x="709.4605417722098" y="-1912.979386888478" link="ZWSH-ZGGG" start_time="69:23:00" end_time="69:45:00" />
	</plan>
</person>

</plans>